500
Velocities of particles
Ar -0.04014891816049971 0.06549382364177025 0.01964692005636229 
Ar -0.007622557363355179 0.038900005368083024 -0.10219768059607337 
Ar -0.06297611168920171 0.15062480427423816 -0.08429184632378103 
Ar 0.03476274259957179 -0.07095072360657902 -0.018506466586458555 
Ar 0.05714428786558928 -0.12043225890416821 -0.04683036930744561 
Ar 0.009011270076199368 -0.010786051442795605 0.0059280143444165045 
Ar 0.12455157983938993 -0.041374549471835345 -0.10712052172978721 
Ar 0.004490604986626963 0.030786043728877225 -0.08136241980708843 
Ar 0.1102676306208469 -0.005289355610627554 -0.008273750536081054 
Ar 0.10069710829394586 0.03292922378942917 0.2025462402832328 
Ar 0.047569268973257695 -0.11506874669349192 0.06689587769717603 
Ar 0.12092087574301558 -0.020567422619658025 -0.026829727505795757 
Ar -0.03276550957935254 -0.03904812178456004 0.02362379303995447 
Ar 0.004184379453349322 0.008649320330414836 -0.05215086829043542 
Ar -0.08301563259270832 -0.01754368722909684 -0.09158683272258802 
Ar -0.002184445424108112 -0.040026565808160074 0.05460321948207151 
Ar 0.0426708740213653 -0.017001715748759725 0.10031582317292334 
Ar 0.002213398890468115 0.032580587865509276 0.050600843763579505 
Ar -0.01919477739427863 -0.060792873390957146 -0.02902631486482484 
Ar 0.025812935539928618 -0.08383065640071075 0.024651006367551097 
Ar 0.027450302050540158 -0.004368674334422452 -0.039148562627591414 
Ar -0.023689504996435927 0.0018350911668896586 0.0017316469621339687 
Ar -0.022636758676011948 0.04252719483171599 -0.01818722778282484 
Ar -0.04478670966753636 0.02058904437062135 0.02845286980464336 
Ar 0.05758706668644713 0.013088223548898303 -0.012929160858741216 
Ar 0.10324097510221222 0.027559480790453596 -0.06280619948845687 
Ar 0.0029756789598015033 -0.0234649844720388 0.0392820919153176 
Ar 0.07686658565393961 -0.0889426934036377 -0.0020446094296416996 
Ar -0.06899922020097295 0.08058570823427529 -0.051176807114097715 
Ar 0.09093738003597271 -0.0469189114516021 0.034437698484379345 
Ar -0.10643238766561196 -0.04409668855609445 -0.07530319916741617 
Ar -0.045803208093803824 0.10561281762834915 -0.06812202243114164 
Ar 0.030421547758940574 -0.014593831035423213 0.05671510758774762 
Ar 0.08933572254160506 0.03831400699770856 0.06775284510343096 
Ar -0.004054273876475062 -0.04084241157921934 0.0065379143239967935 
Ar -0.03042834062433621 -0.10256835281510958 0.07179117543659042 
Ar 0.03467780328348799 -0.14834769415296806 0.046853056020782755 
Ar 0.1001962422368344 -0.13840761831181803 -0.04480231272264856 
Ar 0.01961424545104707 0.11569042169121747 -0.018611477223359554 
Ar 0.027535154768865533 -0.0018060570730587917 0.07595254322390786 
Ar -0.0056156142602107354 0.04530182700518406 0.05759476956281154 
Ar -0.05964055101885324 -0.007569114241164289 0.041564887901835545 
Ar 0.025664363905220682 -0.004716128927068786 0.024996552505526834 
Ar -0.012114435406623172 0.0029932560952473384 -0.015226251158633514 
Ar 0.03109642933761997 -0.11886687487046453 0.02881063096442512 
Ar -0.05417296165921992 0.055818967449280145 -0.10718213604172677 
Ar 0.1227408680282243 0.026367735349809126 -0.015440798219094033 
Ar -0.02053327307025833 -0.03876800653263113 -0.017346755007612485 
Ar 0.11803698595565149 0.01900731445056762 -0.01160785128111481 
Ar -0.021231065594146267 0.059851309787793565 -0.06629145276138419 
Ar -0.0566723450344622 0.043607725875718 0.04297184135139917 
Ar -0.01962206254362471 0.13575167823562057 0.002593328188046372 
Ar 0.1182811984772045 -0.005391611557758573 -0.013660291269194665 
Ar -0.022076470027538146 0.07019017447141952 -0.15547590168571757 
Ar 0.0820209691048215 -0.004982605762226634 0.02444371097667526 
Ar 0.0811617499438145 -0.06300764209259413 -0.009562501458940746 
Ar -0.06866990371736703 -0.06684240903522891 -0.003723807193072462 
Ar 0.021566471458410768 -0.024104268314608806 0.03950082091542054 
Ar 0.01922412005008781 0.0037823371047537653 0.044805207323231434 
Ar 0.0067098446820518815 0.00459126031130864 0.059439024087700694 
Ar -0.060401121391770916 -0.06955571695044747 0.016158375312254794 
Ar -0.03501034414348441 -0.08697860200661707 -0.01282969101265204 
Ar 0.005505288161184076 0.10533238701294022 -0.09549528711412056 
Ar -0.025668124700100686 0.07094172717578771 0.06181528734948741 
Ar 0.04831660397712265 -0.041465665188270794 -0.0014206568279064395 
Ar 0.01710329378557491 -0.03892748589067107 0.04874461952616202 
Ar 0.012186252537151537 -0.048336314034625814 -0.031430860165949176 
Ar -0.017938017742528425 -0.07094045967516532 0.01948237412576567 
Ar -0.007666354150183146 -0.034167780831347805 -0.05410132978677436 
Ar -0.09789845491444277 0.03612043253133588 0.006169755449612141 
Ar -0.04215337738700778 -0.01869899518604199 -0.017451415529397676 
Ar -0.0023052605499645105 -0.07372916312621286 0.09662619626948324 
Ar -0.05948915177775379 0.12634989860360143 0.028708900448795358 
Ar 0.03207623839096211 0.06186116856084025 -0.019923077969244796 
Ar -0.0016464595123102529 0.02532068699300263 -0.026557692355173697 
Ar 0.020638651672662947 -0.04632193050189212 -0.05723995715664058 
Ar -0.06807911525548636 -0.07415816002701316 0.0655732363148513 
Ar -0.013393182837295193 0.030997627823330234 0.06008493578325497 
Ar 0.028698583049766954 0.009085802153841218 -0.028141949091507766 
Ar -0.09706755312534861 -0.15385307564883227 0.010590171250377438 
Ar 0.0858252106376379 0.07295427774843939 -0.038776297737083826 
Ar 0.00030801146235448333 0.015435216259644818 0.03590459912887463 
Ar -0.04215262617773592 0.05103830346199536 -0.06121672207292963 
Ar 0.08123441765908412 0.04277480406751296 0.034620341741497904 
Ar 0.036069819681976374 -0.12063665659452893 0.05424982841639027 
Ar -0.03281765477575698 0.026028256755956918 0.028895822821187012 
Ar 0.018472387600659643 0.02393496423124062 -0.019378104422499296 
Ar -0.0016988916659966252 -0.013583123696052085 -0.051150968079644726 
Ar -0.020250444867448935 -0.04788375653096099 -0.044869566957116 
Ar -0.10045542630683428 -0.001923880723140599 -0.06076190228447374 
Ar -0.02277901837862697 0.02579373969237626 0.05916339209207851 
Ar -0.06572096338923807 -0.09105945604054887 -0.003257346878574219 
Ar -0.0847720752036812 0.022733958855776858 -0.02793457967851957 
Ar -0.006586644237620047 -0.044044236022942544 0.06670842563822936 
Ar 0.009819793953430534 -0.003828740848495994 -0.10652384235253648 
Ar -0.0010956624530723432 0.0483421627168621 -0.037216781990822 
Ar 0.055314086580493166 -0.06045617888595899 -0.015236453031625904 
Ar -0.05629192603010631 0.01620248648588893 -0.08484581980087537 
Ar 0.09991705310583739 0.05567826880744235 0.04700533585757083 
Ar 0.019676327324117532 -0.07876287498131343 0.03160502278416848 
Ar -0.125352098689138 0.04683668602648228 -0.009760710347439574 
Ar -0.04965551606759293 0.02757137853950816 0.076284477290596 
Ar -0.016919009039902934 0.040010780633437645 0.011843837120301995 
Ar -0.07486955547880346 1.5067943290852103e-05 0.05488186925820441 
Ar -0.00824187792558505 -0.05164948166559309 0.055437045571288306 
Ar 0.0998705547719638 -0.0378887805519672 0.0028293174238456227 
Ar -0.02113039499321865 0.15180164122520362 0.06271025050461143 
Ar -0.03871979847995001 0.029706701210737558 -0.010740070578181722 
Ar -0.08504197627504093 -0.04335225072899157 0.012970073301018573 
Ar 0.045020122001835194 0.15880895901188471 0.01484155056253645 
Ar 0.015755451350868848 -0.014127518093315054 0.05174356784350726 
Ar 0.11822081358798645 0.025172813006020672 0.0441903154359726 
Ar 0.06335345190708618 0.020721240076062224 -0.01931141428959087 
Ar -0.019069471259257148 -0.005902485476598972 -0.0043128769700320575 
Ar -0.04708399171882342 -0.05766876455859549 -0.020937587600639823 
Ar -0.00805057078274189 -0.05479605766240277 -0.026189125174032508 
Ar 0.012302547196660107 0.018830395179885624 -0.010276447659112835 
Ar -0.08056013701153614 0.025708619927067897 0.0258426205837443 
Ar -0.05296590612060787 0.052061638458494944 -0.04845775458605202 
Ar 0.1401827707180516 -0.12398386990058374 0.019142554249032336 
Ar -0.02857789218043686 0.09096589423268335 -0.02347692786706305 
Ar 0.02792949398866091 0.03921340095052817 -0.011437078853348286 
Ar -0.13675768359682677 -0.024209552642592884 0.03996756595436812 
Ar -0.008691867915730478 -0.0351405755442637 -0.08025184642615184 
Ar -0.02821408317423323 -0.03814801256197684 0.054652999637755655 
Ar 0.07750921684136543 0.14071628319954246 0.020860929107568524 
Ar -0.06864987636823237 0.0034121551395500526 -0.006437853843000224 
Ar 0.11458430645344676 0.0012883263559547932 0.017758988304457258 
Ar 0.06966737985043134 -0.03216659248859585 -0.02943664030731471 
Ar 0.0011147807277972705 0.01824854254635284 0.0018891860537017036 
Ar 0.04125384324087134 -0.04474811861993676 -0.03548243569991301 
Ar -0.10341427189867661 -0.07133970633133709 -0.0593495936296828 
Ar 0.04549919993542517 -0.05388915859119141 0.031198907707017973 
Ar 0.0625053855891259 0.03246702754589287 -0.042516253491351734 
Ar -0.018483072618769043 0.1228750163883296 0.05716713564710724 
Ar 0.017399377666912696 -0.019279267493247914 0.08914032046792762 
Ar 0.09735316782913256 0.0491281227084044 -0.02314044818266462 
Ar -0.044622909684678094 0.015574628672601733 -0.006637931224824537 
Ar 0.024758633325663647 0.03822457725670397 0.04670831787232459 
Ar 0.08583252306014494 -0.030349274653671918 -0.03694620426950819 
Ar -0.12158042574238792 -0.08115843934068316 -0.10667898574751793 
Ar -0.01533958451111173 -0.011976327117354073 0.008177040118330104 
Ar -0.049243472305759706 0.03601290102495402 -0.08337107895426105 
Ar -0.06341080724475433 0.08603754687492514 0.06763255869923293 
Ar 0.012160481619442495 0.003118739057654663 0.11861002362085646 
Ar -0.01191044842564437 0.05109802020776447 0.02704607287430665 
Ar 0.07828794149820156 0.01132736362345299 -0.10907544352218859 
Ar -0.049294626392009724 0.015121338951444244 -0.015398170952783737 
Ar 0.03436227359158915 0.04930845444618723 0.021734382530808383 
Ar -0.014666775418865772 0.040880670521103835 0.01938799729763579 
Ar 0.08685701592536849 -0.018898297229067974 -0.0668870948624112 
Ar -0.09438982929468631 0.06196951929259313 -0.04282018402597538 
Ar 0.08354079486987098 0.019057598590241656 0.06187523323670989 
Ar -0.07029313705108678 -0.020609090087404965 -0.0627064273732209 
Ar -0.08263411530723855 -0.08616314782047406 -0.05570329370497864 
Ar -0.008232905642941012 0.010734666113006422 -0.07938579641230853 
Ar 0.021815962495338605 0.019658918918614 0.03789436521497432 
Ar 0.00481386269513176 -0.01873020110532396 -0.033735297283557994 
Ar 0.01949812424282228 -0.0267969734792306 0.016101659960481355 
Ar -0.018656592535021516 -0.05704869507454038 -0.026155314881852174 
Ar -0.09044311845232837 -0.0720781249391369 0.0336418088963381 
Ar -0.0541417272392056 -0.021174007855873 0.051690574640830295 
Ar 0.010313958584772697 0.10648052319243927 0.0006793025898286577 
Ar -0.07242290647005309 -0.14205120373062574 0.003914227387882568 
Ar -0.061771135092670786 0.10829400173017169 -0.027232540240298878 
Ar -0.011750665445667116 0.02553352556273306 0.04827147311223412 
Ar -0.10748506883257831 0.05736538729083976 0.07779269777232356 
Ar -0.08295494344646445 0.018522151825675133 -0.07958309179407477 
Ar -0.07388198490110481 -0.06502318054127747 -0.09515170226065313 
Ar -0.005393832191033132 -0.06232444076429367 0.04872760261098725 
Ar -0.03887018437150631 -0.07951595665938646 -0.004010928257306356 
Ar 0.06317519561977668 0.0038510315239822005 0.029149483424851158 
Ar -0.09797334289745994 -0.12218820673232618 -0.01667637466354132 
Ar 0.06291595760970804 -0.001385766691777598 0.033493800395150965 
Ar -0.02864757500820636 -0.06804809287064252 -0.01800465296877224 
Ar -0.11424870218093468 -0.06703453503420627 -0.06481806352990178 
Ar -0.026394219568674937 -0.019377640980259864 0.028919106493976852 
Ar 0.035502736586850304 -0.07058209658180221 -0.036080353465813425 
Ar -0.08904178393290225 -0.03059282460822964 -0.01658814411012743 
Ar 0.058095426166179694 0.008666603234715256 0.017519569091496136 
Ar 0.040945814446755435 0.0006453731472265294 0.05412858764738645 
Ar -0.08360557716387654 0.06084407434966776 0.02346958033966369 
Ar 0.11819721500171068 -0.010278167883572142 0.012933486625490487 
Ar 0.05037727059453407 -0.009199566510196207 -0.032084326852342596 
Ar 0.051253083986120156 0.02555569535886311 -0.003163294927829465 
Ar 0.023333929866260147 -0.01361549626671389 -0.015276073757757835 
Ar 0.03773412436700387 0.07767556437050091 0.052282046682140995 
Ar 0.0602765096615758 -0.11189408193758427 0.08130509828312144 
Ar -0.10460907369384857 0.07761305188149073 0.06815249729147771 
Ar 0.09638196632075832 0.07550469366961003 -0.017778357819594616 
Ar -0.026213234037705736 0.055480581412101604 -0.013242666677518692 
Ar -0.060219131386487705 0.043205610718439674 0.05045558760197894 
Ar -0.022321830935885797 0.018448752205917695 -0.02486561819099133 
Ar 0.0385557805305911 -0.09903355408925202 0.06121827369702981 
Ar -0.08148482170106935 0.009203742742012994 0.08730492580345339 
Ar 0.09296783670057886 0.03144162210636918 0.04356020071676449 
Ar -0.0200222241782108 -0.06849283370099875 -0.018223350356277344 
Ar -0.02014342768909194 -0.06384547181968483 0.07116771372251288 
Ar -0.05922967623454202 0.01879819745316586 0.01671084585036898 
Ar -0.004216343365470372 -0.016818371541522756 0.06267055398303396 
Ar 0.03374635200253232 -0.02706284210376152 0.11088162917982954 
Ar -0.028201259717382608 0.01346749398871392 0.011935349550336148 
Ar 0.02858385029570697 0.022144542778162097 -0.027692629026326125 
Ar 0.05707170099411713 0.007020542892001394 -0.038645589215216686 
Ar 0.01891991579733342 0.008686653459562474 0.06240159753164806 
Ar 0.07667879567287099 0.004037314184207122 0.043942923956026725 
Ar 0.010658069427795949 -0.0015322334128890862 0.02135387723575168 
Ar -0.06513648464181984 -0.06547203175596238 0.007005068959768661 
Ar 0.07922279303336541 -0.007988342943583405 -0.029958363678987295 
Ar -0.0312162469118443 0.15481485522598332 0.07220117651994577 
Ar 0.013722778494910675 0.03816090260788755 0.07725716981388368 
Ar 0.014409913199534071 0.09491385759473236 0.09149322056014311 
Ar 0.06437537326591761 -0.026497637860326703 0.12322188497990254 
Ar 0.07995547606666241 0.010703840752366382 0.007169593261848595 
Ar -0.05378863764412969 -0.05365981477572857 -0.011528424777349637 
Ar 0.07203897113830487 0.05532269229517424 -0.0350134887244033 
Ar -0.00021720272481226167 -0.04418227365912912 -0.011636353872307752 
Ar 0.010037508424722145 -0.04914721288169662 -0.012241284459198217 
Ar -0.02907618427320558 -9.78823249525642e-06 0.02120177464483341 
Ar -0.004933426189164755 -0.007911780725105646 0.06637024382056723 
Ar 0.051786811003697565 0.008953248433039409 -0.0869008589004688 
Ar 0.02715097943477072 0.03480071166991335 0.034987960733577426 
Ar -0.039912331001346626 0.1327853399452574 -0.06549710675664516 
Ar 0.014926179694513762 -0.07543092437792652 -0.07532044731954274 
Ar 0.07387085232121121 -0.08644271062281327 -0.03199805040591933 
Ar 0.008572413147006483 -0.02245309980633821 0.02314313478639883 
Ar 0.036210888752883495 -0.0726257444264509 -0.02341154864448263 
Ar 0.022922020156047395 -0.07817400349496949 0.055397306324508046 
Ar -0.017668911898935803 -0.04019278558474072 0.030387546142476754 
Ar -0.045751060031264244 -0.016118731306714863 0.04213908636732751 
Ar 0.11130463541672625 -0.01645046170309652 0.0054021181255048765 
Ar 0.1583841180103264 0.049578114691806896 0.03191085287247966 
Ar 0.07560494103669665 0.03989910320021123 0.01095323727957098 
Ar 0.045884998206585356 -0.128704343662082 0.01368262360119525 
Ar -0.018071170969596984 -0.041601123962401385 0.04502713011923192 
Ar 0.04139011893382767 0.032747014608115674 -0.026282736248692817 
Ar 0.10810942845437044 0.04822500402408132 -0.10686636223456467 
Ar 0.010902512788064886 -0.05554563628630431 -0.0042812148776064304 
Ar 0.05678694502025606 -0.027018866241083142 -0.016654706227036648 
Ar 0.023896187588089254 -0.052093909671678276 -0.03825642581872802 
Ar 0.04312671631174175 -0.01767901099115012 -0.037327517796002574 
Ar 0.04042588168684297 0.06662389566612949 -0.032873755128679384 
Ar 0.04426175371349055 -0.01019814265692077 0.0031303888480663966 
Ar -0.028486656268586194 -0.06487252821283754 -0.007396625030531177 
Ar -0.03666658557068473 0.006438268811636531 -0.051158247764028726 
Ar -0.017930124614946766 -0.025719232262144044 0.1419611303809268 
Ar -0.06157181796464938 0.011667840258757703 -0.04199611867251289 
Ar -0.07070256665025841 0.044987387666639 -0.018724903003546328 
Ar -0.06556057299288806 -0.005644754559957706 0.0029610181476497563 
Ar -0.07252379025952857 -0.03183847958003278 0.025297054091553927 
Ar -0.026486760162024503 0.07071828576147395 -0.01409759536127284 
Ar 0.036714757097993905 0.16475738190080455 0.06885088342818263 
Ar -0.0329873856335939 -0.14092215731307614 -0.057115047115045704 
Ar -0.01699026082836989 0.057323619199514356 -0.0691105944822903 
Ar 0.06474903074332738 0.08756872521594954 0.027692555784316078 
Ar 0.007047661422945867 -0.01120939455112173 -0.017153508750636474 
Ar -0.028710080658206592 0.1269203244765017 -0.053018351210649114 
Ar -0.04786303614991171 -0.14371960908185993 -0.02794470512920016 
Ar 0.07357618879889832 0.0006875070105519234 0.04542463541775478 
Ar 0.0005839568306744534 -0.05357972630224677 0.027580742404115954 
Ar 0.0002739416301281648 0.008639661686380985 -0.15909602237094156 
Ar 0.0054074244997097095 0.04575141347624864 -0.025801198682257886 
Ar -0.0068992135680026375 -0.09127009514186021 -0.010325549078756753 
Ar -0.09465735547592663 0.07150274374688229 0.01721321341266012 
Ar 0.04609322276523792 -0.07128073336711266 -0.10297841239987571 
Ar -0.10443531501398395 -0.0333663250026922 0.12002716913174528 
Ar 0.09976066746611226 0.01034399741834511 -0.022119831054094923 
Ar 0.04385124701731341 -0.02010663281824523 0.11394891284922211 
Ar -0.01397725925645666 -0.030039594991191982 0.05233642487215446 
Ar 0.039709316704222106 -0.07009537416284954 0.02333945960451171 
Ar -0.0016599674355419695 -0.06178982191482559 0.011591913690491042 
Ar 0.04742194076409693 -0.042023570378294066 -0.061456662203445304 
Ar -0.0359515207895026 -0.03545427029955261 -0.03632432240902681 
Ar -0.0315437399150376 0.03788494987426707 -0.012006450243736729 
Ar -0.007668915024776356 -0.05923811526315115 -0.014561712623599414 
Ar -0.041579725208408774 -0.0020455471521458705 -0.029124534414879586 
Ar -0.06051361500392619 -0.01597984485990954 0.06084917271189204 
Ar 0.08417659299588695 -0.020487812974097096 -0.07354153265212038 
Ar -0.10095033154356298 -0.022831279083036744 0.052558359636135955 
Ar -0.04555307315019349 -0.039389287985336315 0.08008340715521868 
Ar 0.10772219411202767 0.02215597543690784 -0.038687082608416266 
Ar 0.00021018264327199695 0.10085056999946779 0.011975705574306177 
Ar -0.08070738337031858 -0.018960698475424052 0.09524241584789853 
Ar 0.02682796621896754 0.01496007735795477 -0.10155977471985923 
Ar 0.024729342795386338 -0.022824656181424097 -0.023804103259262594 
Ar -0.031265782734471864 0.01678863820746359 0.04705122557281522 
Ar -0.04082779948842784 0.014960999468332778 0.028663182772543958 
Ar 0.12961866486192797 0.0363367374649549 -0.0923110766447776 
Ar 0.05774676130847252 0.054943392468565555 -0.010184816097459937 
Ar -0.021946399007824125 0.022815555174293477 0.008502686866002408 
Ar -0.036360941423954116 -0.021478694939598236 -0.025411333406559412 
Ar -0.09758374838476627 0.02502985403533696 0.0652774672004335 
Ar 0.052238335269904394 0.005184364758088718 -0.046119480313675736 
Ar -0.007847903326493674 0.016820026467928788 -0.03418463359055966 
Ar 0.05167255645271249 -0.03779666769974848 -0.07223625397631915 
Ar -0.00045257952556807364 0.09743468546378616 -0.03750610905475387 
Ar -0.10133107091715104 0.04391739704516551 0.11565596955342429 
Ar -0.01931684229346308 0.03215387914256676 0.003123040998730516 
Ar 0.0705354087040272 -0.08734117130138558 -0.036389252357365336 
Ar -0.02941426912414317 -0.08883706800320951 0.02333212706841996 
Ar -0.0812279205742462 -0.0005034497828934534 -0.0067762534377731375 
Ar -0.0038083239354846665 0.00570486815504851 -0.009196367285367072 
Ar -0.08321961588131896 0.0772251575542513 0.0573336118243047 
Ar 0.012263954703492222 0.05111107278600722 -0.1483452139762455 
Ar 0.022018537392419647 -0.0990554190099814 0.06398052909741918 
Ar 0.08681536517788567 0.05059970909793536 -0.005008734856733558 
Ar -0.027723850336843835 -0.021302191069258288 -0.11836829928536571 
Ar -0.0016484017555367869 0.04460261571260573 -0.054071346522393614 
Ar 0.046969640559065995 0.03129529886740755 0.12470046623286438 
Ar -0.03434137985395771 0.10047978058258919 -0.09294031385436144 
Ar -0.07595376794149392 -0.006213449205571741 0.08905454435856783 
Ar -0.058399593395386314 0.045468580214988966 0.02375294609991979 
Ar -0.06575065589670431 -0.06229695920462778 -0.051226597240341086 
Ar 0.03138570119455886 0.024923014929984066 0.09893753920880125 
Ar -0.076991538656242 -0.009740134476052771 -0.05679490067152293 
Ar 0.09378949118188308 -0.018697553314644195 -0.020409078756126017 
Ar 0.04247937935701557 -0.03509994643251209 -0.06918210198903266 
Ar 0.09873191980614233 0.060818295206414984 0.00946000667605968 
Ar -0.05425293822374926 0.019904987152398725 0.03609930554911185 
Ar 0.011481764934378295 0.045584290059047475 -0.02832652597731305 
Ar -0.056118239673458595 0.013882098506162881 0.039160973332512256 
Ar -0.07164931088165372 0.010426243083753058 0.11078660556758639 
Ar -0.06653908693094819 -0.00010958413172862558 -0.055067067899961186 
Ar 0.06160348371451688 0.01166112629180734 -0.025069502495308718 
Ar -0.007484818458168807 -0.039098517384258735 -0.00831235829990394 
Ar -0.0369110558521542 -0.0007390654693382345 0.02369975288102145 
Ar -0.04030865611719621 0.0015301474438530957 0.03568629010265717 
Ar -0.037333531320730244 -0.0359803151882911 -0.04869232422068041 
Ar -0.08525348761234527 -0.11770045624920678 0.034127262870453194 
Ar -0.01997003515259085 -0.023454183676222096 -0.02012923480575353 
Ar -0.036687147838481864 0.0009592376846712047 -0.010542102991415097 
Ar -0.022783557256467205 -0.008872807347673855 -0.009616356608969014 
Ar 0.027052284398106564 0.06987187916877988 0.007541239422800968 
Ar 0.055276928005862855 0.004104792725239889 0.0830119797122569 
Ar 0.048662700495968256 0.018399084782306948 0.03201532931332026 
Ar -0.019076407475423062 0.04870765714536785 -0.1052516544150724 
Ar 0.031315104596383606 0.004542206365436574 -0.008067136552513713 
Ar 0.00485885850821954 -0.007626985794636405 -0.008408531565994401 
Ar 0.038494877529414884 -0.022479030878384695 -0.00856705078625691 
Ar 0.006745646543127491 0.10119737371382305 -0.052453263891609404 
Ar -0.0028425310267476706 0.06913975364621477 -0.04382890633821623 
Ar 0.07644797036509221 -0.027054075064002855 0.017966088836251018 
Ar 0.018762271504528638 0.0066601162612160624 -0.0494899629287879 
Ar -0.04161820911100016 -0.06415124750650782 0.00017227364530092518 
Ar -0.02114076197973283 0.02149747043099913 0.016960564537414555 
Ar -0.05402865693282375 -0.12197961715224778 -0.05043425963165575 
Ar 0.02838851479050786 -0.08076531506735386 0.05537682646756205 
Ar 0.026319257988758667 0.08593491552389675 0.014413299606962492 
Ar -0.0203621655919491 0.016204919715182526 -0.007410949241843909 
Ar -0.021532258593611645 -0.03065980699996704 0.02648769240193336 
Ar -0.007892966827272783 -0.03895353502638773 0.03326089389032389 
Ar 0.03670474387929238 -0.150801737716873 0.015200180011044716 
Ar -0.06178505901069422 -0.04926096405800535 -0.12478317731036616 
Ar 0.04013817269784376 -0.16259161882646245 -0.03072894097210982 
Ar 0.14128109709626308 -0.046522617462015955 0.034539279102394294 
Ar -0.03320951925093725 -0.007702431788400979 0.01903563334633056 
Ar -0.052864496376325606 0.02665201785105131 -0.04160181888653812 
Ar 0.051418520115869885 0.022616161860257614 0.014125731512302887 
Ar -0.010421030238201774 -0.04730619140111158 -0.12026496900133965 
Ar 0.0079063149592892 -0.0357575201514683 -0.09455719027461698 
Ar -0.09902418374699253 -0.0037381349571996413 -0.09629198926517252 
Ar 0.07270525038686082 -0.010054417383416737 -0.0375906413850838 
Ar -0.038915247571299355 0.039376729065221105 0.021246509275625627 
Ar -0.040440667494307206 0.18957776057065598 -0.05518689140277624 
Ar 0.012871267842354237 -0.020772043549415618 -0.03451485209845346 
Ar -0.016207342546511423 -0.01744465347220422 0.0004865216742472128 
Ar -0.07824507514936056 0.021076039828268504 -0.08202720414519815 
Ar -0.022348695155886257 -0.03339155929827846 -0.005535504352708914 
Ar 0.03444255906043582 -0.060651702967808564 -0.07926418498384187 
Ar -0.004649737585353052 0.13275837903057558 -0.04309965849872745 
Ar 0.07007597740892524 0.020166174796075284 -0.04903130109385253 
Ar -0.029399584735271357 0.06733889356584505 0.08094340366085892 
Ar 0.013412389478975282 -0.03216702660790752 -0.06166921636705053 
Ar -0.10159753051805627 -0.018283566516771307 0.02745848527440919 
Ar -0.019347513536554846 0.04367484275848726 -0.053949932847527894 
Ar -0.039804110782769936 -0.06676211779220828 -0.030209148164441056 
Ar -0.004933701846598961 -0.05342881098038337 0.08217761933061267 
Ar -0.06807248404042994 0.08691627661030268 -0.02725598046370474 
Ar -0.0006631984312014328 0.04432519055506804 0.015823253014356817 
Ar 0.07853978153147008 -0.009570415325020608 -0.003527552215234102 
Ar -0.008822956713856203 -0.031605944086642926 -0.0036218509347955997 
Ar -0.02446230861222309 0.0435507014445061 -0.11136381811817199 
Ar 0.024063178431230802 -0.008916088946491495 0.19553271970169844 
Ar -0.02349485020431801 -0.03304117149948091 0.06584261002818845 
Ar 0.009369343265563343 0.003943364970072279 0.05197105371526761 
Ar 0.1428073389712595 -0.008416307445807101 0.05280188090740484 
Ar -0.019672567493416494 0.055103800786380996 0.002704038594013298 
Ar -0.059865812005957066 -0.028202278798914706 -0.13203491314815582 
Ar 0.003357402011332499 -0.12148035623774357 0.03252204840729913 
Ar 0.006323774199634784 0.04892459477501271 -0.05518859697316705 
Ar -0.028793406776914793 -1.2660589457976043e-05 -0.05230570487891853 
Ar -0.025668753243114652 -0.0700220919764247 0.012254382657055137 
Ar -0.02023069515185621 -0.15570118167700395 0.006222447941218709 
Ar -0.03658544078123654 -0.0653583248831316 -0.0013446585865625562 
Ar -0.003115604672517227 0.05223738685979256 -0.10655429575615284 
Ar 0.03123526409498212 0.06539982010669097 0.04184877750259752 
Ar 0.04954885676120962 -0.0385550864898856 0.053209962383185434 
Ar -0.015447840420796319 -0.01909487554526091 0.021942766200899376 
Ar -0.026209134953274177 0.027427902070149793 -0.055195410922909 
Ar 0.04553486541899013 -0.05171649411570436 0.06487766157447468 
Ar -0.036452984036802416 0.015590628268013095 -0.08919952525848877 
Ar 0.006114265100456276 0.06531462046322845 0.09396779152227315 
Ar 0.005372732921004672 0.08941818333268947 -0.00647962899247078 
Ar -0.04681322621161829 0.04075493614696968 -0.0078898625849448 
Ar -0.12669714494649806 0.011305961922313423 0.01206728679397904 
Ar -0.07083119269514894 -0.06674213666578073 -0.08459169521410803 
Ar 0.022876112788805338 -0.04804730344354077 0.04907190655089935 
Ar -0.08576176881679026 -0.02723283254616659 0.04861455997635885 
Ar -0.056693482955839626 0.03136064472920621 0.06862584659035581 
Ar 0.013314123026028489 -0.02501965374902991 0.0005241094837576245 
Ar -0.006712660022494553 -0.011468585016234259 0.03223872580218436 
Ar 0.028867425428526942 0.008730943014332724 -0.00866077468409775 
Ar 0.02851444758418566 0.021926476129286096 -0.053389916373650426 
Ar 0.031106196273622655 -0.05399014952981565 -0.03385685236806158 
Ar 0.02408837284313769 0.017021409456020906 -0.048650770336737 
Ar -0.027518187404210075 0.021713844603971064 0.03857478900771056 
Ar -0.03056649904688349 -0.07591199527457174 -0.09789847828711902 
Ar -0.03178407400069692 -0.0022103515253160968 -0.04792771642541465 
Ar -0.019063501252391604 0.006302992859264433 -0.09197265748143289 
Ar -0.0017303231907627584 0.04120637755352251 0.13056052743991522 
Ar 0.1061063592608766 -0.03225949364597452 0.043081571725248985 
Ar 0.03404311134200753 0.055963712778167564 0.022435439472818328 
Ar 0.09972852488641785 0.07844468089974553 0.12873433952605323 
Ar 0.152107438138324 0.0590122050201486 0.015507667529553255 
Ar 0.06369107617566341 0.09726629650728652 0.0783454234830304 
Ar 0.12057734580666195 -0.06888879905419772 -0.15947936414902159 
Ar 0.09811817767942367 0.04468042533124335 0.04978638973042557 
Ar -0.014240873005512038 -0.009067355220567732 0.03795394953333668 
Ar 0.09523779588031787 0.017312425124760392 -0.03350535094714564 
Ar -0.015169487905102658 -0.06351776937208656 0.05031347921172176 
Ar -0.026290178774658984 0.04362414419314402 -0.00790970458533709 
Ar 0.09647095892935854 0.029289704974419854 0.029748064412993814 
Ar 0.059302896483673796 0.01874886163830815 -0.07737563655383482 
Ar -0.08464295964366952 0.12002816368672642 0.04932519782926606 
Ar -0.14313039450153908 -0.002948062812649388 -0.06115994304211909 
Ar 0.015334585853082346 0.06898744747863833 -0.07224473240362471 
Ar -0.02106538978338486 0.07037969455724397 0.017392122767931412 
Ar -0.04611980918466809 -0.010817449579051628 0.03601595404149271 
Ar 0.0005587944000405567 -0.009082051051075459 -0.04317827304996971 
Ar 0.030540407349667936 0.012394016428833806 -0.08790181162764955 
Ar -0.03921578564212383 0.009492491463423626 -0.025098038875340335 
Ar 0.055678706719514255 -0.020598473176362413 -0.0595063622967602 
Ar 0.042971190563477174 -0.04260087172445454 0.021991636261256213 
Ar -0.040638123855298344 -0.08318037600341147 0.07260127421779931 
Ar -0.01345247913081876 -0.06860321265891682 -0.02796971181901413 
Ar -0.021347695915492404 0.012521169081925002 -0.07467669329440185 
Ar -0.05506736770114008 -0.0879107786716649 0.042491079085489485 
Ar -0.09626933003895365 -0.010003429056547636 -0.05342133430152944 
Ar 0.05904556628831658 0.05198612214111056 0.038439199320438995 
Ar 0.06859991544860153 -0.012593470127499583 -0.023590232214920348 
Ar 0.07305464630348846 -0.028626149025115236 0.11998251857818046 
Ar -0.024342472434307764 -0.1447702004574531 -0.008787672504004295 
Ar 0.14161470030250295 0.04516077123347291 -0.061503330142527096 
Ar 0.09810257173319412 -0.013987344010888808 -0.008248563518873125 
Ar -0.0009692130827463736 -0.039158931167581776 0.07205792423058564 
Ar -0.0309516578069821 0.10529540443778539 -0.036579551909677537 
Ar 0.06407493638572845 0.003417250803634495 -0.01341855307374762 
Ar -0.011747240840725088 -0.004780023783186696 0.041951526432404955 
Ar 0.00793729594607025 0.027775978330819903 0.016875167518842733 
Ar 0.025739530926004343 0.031670576193163893 -0.09237177552106858 
Ar -0.08068471281073111 0.005094199435885279 -0.032813291905780646 
Ar -0.010390791037378253 0.03884345461610529 -0.07782012312138784 
Ar -0.06581162986659604 -0.012612616237731014 0.0397192694270307 
Ar 0.02567428101498308 0.03421059728246484 -0.10845344559746073 
Ar -0.013720425463298415 0.040262384708502845 0.057118480979332 
Ar -0.022191740241899825 -0.012846799863383595 0.0055040916908210445 
Ar 0.011857979166445643 -0.019609758108524052 -0.05575157014721573 
Ar -0.07040154182457124 -0.05808059983031981 -0.028025877920535566 
Ar -0.019732111287614863 -0.015291099927349677 0.015519232673962068 
Ar -0.06746062492190524 -0.08590087397921069 0.08073423641569726 
Ar 0.04822302617175605 -0.011581155964595862 0.01672138443991038 
Ar 0.036804729530948946 0.019617236139270817 -0.01196767859828069 
Ar -0.044510916507516686 0.013717606982122103 0.009143468088735156 
Ar -0.034026477722132596 -0.025722032742168374 0.016877994320889773 
Ar 0.09617780793272758 -0.1204457168099041 0.00351159215412482 
Ar -0.054786079367020464 -0.07109153908916864 0.02429790498678407 
Ar 0.08700400811557762 -0.01663452345198073 0.14716236844277342 
Ar -0.07482986237457315 -0.008194756120337862 0.07586721954427605 
Ar 0.06297971641101156 0.029300193206114378 -0.023384541719222916 
Ar 0.060468237770004665 -0.014259304406270849 0.14879301121827246 
Ar -0.13160013956825584 -0.012734506656533686 0.0017149234252690098 
Ar -0.02539009285575637 -0.0356516217289901 0.05407338201441081 
Ar 0.05501718724758825 -0.054432164074950946 -0.03594857668256488 
Ar -0.041012975582841636 0.017990632825091016 -0.08522529302708921 
Ar 0.009149450829616984 0.0878886179868804 -0.07772570181083749 
Ar -0.04051046767531622 -0.04602518831968489 -0.03513243578239621 
Ar -0.07914511679089187 0.05679372234110673 0.012066212184636885 
Ar 0.011970053691561434 0.030449858045170447 -0.0058067976989669805 
Ar 0.03377268184261612 -0.016608764261224082 -0.007443164527737747 
Ar 0.07179476503386072 0.002956777121644713 0.033037857339756775 
Ar 0.02657631976216569 0.0823237000441679 0.021623033787074294 
Ar 0.1439087073802757 0.03121331980434536 0.06691613398411518 
Ar 0.017342036217209773 -0.060884541964967454 0.007752893376013365 
Ar 0.030794186411638155 -0.03274551922650171 0.022425383824323797 
Ar -0.040504073771292004 -0.10531294026808323 -0.005885683601873667 
Ar 0.06374275742547461 0.00864711178378881 0.01461062523706002 
Ar 0.07106526936844204 0.030571036777760893 0.1612251384190201 
Ar -0.026338065787209618 -0.0710970713982738 0.0002514377281724321 
Ar -0.12864600387846303 -0.038276163287251315 -0.00020996871758463968 
Ar 0.015613514802016946 0.03336583149941624 0.02458361135956533 
